LAMMPS (29 Sep 2021 - Update 2)
# Liquid water RDFs and ADFs (~12 O-O-O/atom, ~1 O-H...O/atom)

units		real
atom_style	full

read_data	/home/common/studtscm18/computing-radial-and-angle-distribution-functions-for-water/in/data.spce
Reading data file ...
  orthogonal box = (0.026450000 0.026450000 0.026410000) to (35.532800 35.532800 35.473600)
  reading atoms ...
  4500 atoms
  scanning bonds ...
  scanning angles ...
  reading bonds ...
  3000 bonds
  reading angles ...
  1500 angles
Finding 1-2 1-3 1-4 neighbors ...
     2 = max # of 1-2 neighbors
     1 = max # of 1-3 neighbors
     1 = max # of 1-4 neighbors
     2 = max # of special neighbors

pair_style      lj/cut/coul/long 12.0 12.0
pair_coeff      * * 0.0     1.0
pair_coeff      1 1 0.15535 3.166
kspace_style	pppm 1.0e-6

bond_style	harmonic
angle_style	harmonic
dihedral_style	none
improper_style	none

bond_coeff	1 1000.00 1.000
angle_coeff	1 100.0 109.47

# need to set bond/angle inclusion to > 0.0
# so that intramolecular pairs are included in neighbor lists (required for second ADF)
special_bonds   lj/coul 1.0e-100 1.0e-100 1.0
Finding 1-2 1-3 1-4 neighbors ...
     2 = max # of 1-2 neighbors
     1 = max # of 1-3 neighbors
     2 = max # of special neighbors

neighbor        2.0 bin
timestep        2.0
neigh_modify    every 1 delay 2 check yes

fix		1 all shake 0.0001 20 0 b 1 a 1
       0 = # of size 2 clusters
       0 = # of size 3 clusters
       0 = # of size 4 clusters
    1500 = # of frozen angles
  find clusters CPU = 0.000 seconds
fix		2 all nvt temp 300 300 100.0

velocity all create 300 6244325

thermo 100
run 500
PPPM initialization ...
  G vector (1/distance) = 0.27965195
  grid = 40 40 40
  stencil order = 5
  estimated absolute RMS force accuracy = 0.000394674
  estimated relative force accuracy = 1.188549e-06
  3d grid and FFT values/proc = 19683 8000
  update every 1 steps, delay 2 steps, check yes
Step Temp E_pair E_mol TotEng Press
0          300   -16692.369            0   -14010.534   -112.83562
Loop time of 5.66523 on 8 procs for 500 steps with 4500 atoms

reset_timestep 0

compute gofr all rdf 150  1 1  2 2  1 2  # O-O, H-H, O-H
compute gofa all adf 100  1 1 1  2.0 3.5  2.0 3.5                            2 1 1  0.0 1.2  1.5 2.5   # O-O-O, O-H...O
fix rdf all ave/time 100 10 1000 c_gofr[*] file /home/common/studtscm18/computing-radial-and-angle-distribution-functions-for-water/data/spce-rdf_300.dat mode vector
fix adf all ave/time 10 100 1000 c_gofa[*] file /home/common/studtscm18/computing-radial-and-angle-distribution-functions-for-water/data/spce-adf_300.dat mode vector

run 1000
PPPM initialization ...
  G vector (1/distance) = 0.27965195
  grid = 40 40 40
  stencil order = 5
  estimated absolute RMS force accuracy = 0.000394674
  estimated relative force accuracy = 1.188549e-06
  3d grid and FFT values/proc = 19683 8000
  update every 1 steps, delay 2 steps, check yes
Step Temp E_pair E_mol TotEng Press
0    298.01132   -16716.972            0   -14052.915    231.22818
Averages over the last 6 of 11 rows, steps 500 to 1000:
Temp E_pair E_mol TotEng Press
299.31 -16546.6 0 -13870.9 23.1314
Loop time of 14.7399 on 8 procs for 1000 steps with 4500 atoms
